data/shbh_evnc_2/p13u/p13uhs12_1247/DSSfiles/Master.dss
Clear

New Circuit.substation_p13uhs12_69 bus1=p13uhs12_69 pu=1.0 basekV=69.0 R1=1e-05 X1=1e-05 R0=1e-05 X0=1e-05

Redirect LineCodes.dss
Redirect p13uhs12_1247--p13udt25432/LineCodes.dss
Redirect Lines.dss
Redirect p13uhs12_1247--p13udt25432/Lines.dss
Redirect Transformers.dss
Redirect p13uhs12_1247--p13udt25432/Transformers.dss
Redirect Regulators.dss
Redirect LoadShapes.dss
Redirect p13uhs12_1247--p13udt25432/Loads.dss
Redirect p13uhs12_1247--p13udt25432/Capacitors.dss
Redirect Storage.dss
Redirect p13uhs12_1247--p13udt25432/Storage.dss
Redirect p13uhs12_1247--p13udt25432/PVSystems.dss
Redirect p13uhs12_1247--p13udt25432/EV_ChargingStations.dss

Set Voltagebases=[0.12, 0.208, 0.24, 0.48, 7.2, 12.47, 69.0]

Calcvoltagebases

Buscoords Buscoords.dss
set maxcontroliter=50

Solve mode=yearly stepsize=15m number=35040
