data/shbh_evnc_2/p13u/p13uhs12_1247/DSSfiles/p13uhs12_1247--p13udt25432/Loads.dss
New Load.load_p13ulv18786_1 conn=wye bus1=p13ulv18786.1 kV=0.12 Vminpu=0.8 Vmaxpu=1.2 model=1 kW=14.903888297911294 kvar=3.2369140555204043 Phases=1 yearly=res_kw_12479_pu

New Load.load_p13ulv18786_2 conn=wye bus1=p13ulv18786.2 kV=0.12 Vminpu=0.8 Vmaxpu=1.2 model=1 kW=14.903888297911294 kvar=3.2369140555204043 Phases=1 yearly=res_kw_12479_pu

New Load.load_p13ulv18787_1 conn=wye bus1=p13ulv18787.1 kV=0.12 Vminpu=0.8 Vmaxpu=1.2 model=1 kW=6.195494065840554 kvar=2.2918200533543684 Phases=1 yearly=res_kw_13855_pu

New Load.load_p13ulv18787_2 conn=wye bus1=p13ulv18787.2 kV=0.12 Vminpu=0.8 Vmaxpu=1.2 model=1 kW=6.195494065840554 kvar=2.2918200533543684 Phases=1 yearly=res_kw_13855_pu

New Load.load_p13ulv18788_1 conn=wye bus1=p13ulv18788.1 kV=0.12 Vminpu=0.8 Vmaxpu=1.2 model=1 kW=4.1877469970558 kvar=1.260586742210779 Phases=1 yearly=res_kw_10211_pu

New Load.load_p13ulv18788_2 conn=wye bus1=p13ulv18788.2 kV=0.12 Vminpu=0.8 Vmaxpu=1.2 model=1 kW=4.1877469970558 kvar=1.260586742210779 Phases=1 yearly=res_kw_10211_pu

New Load.load_p13ulv18789_1 conn=wye bus1=p13ulv18789.1 kV=0.12 Vminpu=0.8 Vmaxpu=1.2 model=1 kW=4.978924462157091 kvar=1.5029863072585232 Phases=1 yearly=res_kw_1389_pu

New Load.load_p13ulv18789_2 conn=wye bus1=p13ulv18789.2 kV=0.12 Vminpu=0.8 Vmaxpu=1.2 model=1 kW=4.978924462157091 kvar=1.5029863072585232 Phases=1 yearly=res_kw_1389_pu

New Load.load_p13ulv18790_1 conn=wye bus1=p13ulv18790.1 kV=0.12 Vminpu=0.8 Vmaxpu=1.2 model=1 kW=14.264042004681256 kvar=0.8943117370230316 Phases=1 yearly=res_kw_4848_pu

New Load.load_p13ulv18790_2 conn=wye bus1=p13ulv18790.2 kV=0.12 Vminpu=0.8 Vmaxpu=1.2 model=1 kW=14.264042004681256 kvar=0.8943117370230316 Phases=1 yearly=res_kw_4848_pu

New Load.load_p13ulv18791_1 conn=wye bus1=p13ulv18791.1 kV=0.12 Vminpu=0.8 Vmaxpu=1.2 model=1 kW=9.535252812300099 kvar=2.708042162201308 Phases=1 yearly=res_kw_1154_pu

New Load.load_p13ulv18791_2 conn=wye bus1=p13ulv18791.2 kV=0.12 Vminpu=0.8 Vmaxpu=1.2 model=1 kW=9.535252812300099 kvar=2.708042162201308 Phases=1 yearly=res_kw_1154_pu

New Load.load_p13ulv18792_1 conn=wye bus1=p13ulv18792.1 kV=0.12 Vminpu=0.8 Vmaxpu=1.2 model=1 kW=11.128565358743977 kvar=0.1521404856162588 Phases=1 yearly=res_kw_9871_pu

New Load.load_p13ulv18792_2 conn=wye bus1=p13ulv18792.2 kV=0.12 Vminpu=0.8 Vmaxpu=1.2 model=1 kW=11.128565358743977 kvar=0.1521404856162588 Phases=1 yearly=res_kw_9871_pu

New Load.load_p13ulv18793_1 conn=wye bus1=p13ulv18793.1 kV=0.12 Vminpu=0.8 Vmaxpu=1.2 model=1 kW=10.090656589534623 kvar=1.2886243054645354 Phases=1 yearly=res_kw_12608_pu

New Load.load_p13ulv18793_2 conn=wye bus1=p13ulv18793.2 kV=0.12 Vminpu=0.8 Vmaxpu=1.2 model=1 kW=10.090656589534623 kvar=1.2886243054645354 Phases=1 yearly=res_kw_12608_pu

New Load.load_p13ulv18794_1 conn=wye bus1=p13ulv18793.1 kV=0.12 Vminpu=0.8 Vmaxpu=1.2 model=1 kW=1.3571348598185444 kvar=0.7897285261495656 Phases=1 yearly=res_kw_3364_pu

New Load.load_p13ulv18794_2 conn=wye bus1=p13ulv18793.2 kV=0.12 Vminpu=0.8 Vmaxpu=1.2 model=1 kW=1.3571348598185444 kvar=0.7897285261495656 Phases=1 yearly=res_kw_3364_pu

New Load.load_p13ulv18795_1 conn=wye bus1=p13ulv18795.1 kV=0.12 Vminpu=0.8 Vmaxpu=1.2 model=1 kW=3.7865903007860364 kvar=0.8434944059225316 Phases=1 yearly=com_kw_29164_pu

New Load.load_p13ulv18795_2 conn=wye bus1=p13ulv18795.2 kV=0.12 Vminpu=0.8 Vmaxpu=1.2 model=1 kW=3.7865903007860364 kvar=0.8434944059225316 Phases=1 yearly=com_kw_29164_pu

New Load.load_p13ulv18796_1 conn=wye bus1=p13ulv18796.1 kV=0.12 Vminpu=0.8 Vmaxpu=1.2 model=1 kW=3.3729897643354136 kvar=0.8074671946641432 Phases=1 yearly=com_kw_39334_pu

New Load.load_p13ulv18796_2 conn=wye bus1=p13ulv18796.2 kV=0.12 Vminpu=0.8 Vmaxpu=1.2 model=1 kW=3.3729897643354136 kvar=0.8074671946641432 Phases=1 yearly=com_kw_39334_pu

New Load.load_p13ulv18797 conn=wye bus1=p13ulv18797.1.2.3 kV=0.48 Vminpu=0.8 Vmaxpu=1.2 model=1 kW=34.015983934630476 kvar=7.185161828662819 Phases=3 yearly=com_kw_17177_pu

New Load.load_p13ulv18798_1 conn=wye bus1=p13ulv18798.1 kV=0.12 Vminpu=0.8 Vmaxpu=1.2 model=1 kW=11.85205298428591 kvar=1.92532021593746 Phases=1 yearly=res_kw_14716_pu

New Load.load_p13ulv18798_2 conn=wye bus1=p13ulv18798.2 kV=0.12 Vminpu=0.8 Vmaxpu=1.2 model=1 kW=11.85205298428591 kvar=1.92532021593746 Phases=1 yearly=res_kw_14716_pu

New Load.load_p13ulv18799_1 conn=wye bus1=p13ulv18799.1 kV=0.12 Vminpu=0.8 Vmaxpu=1.2 model=1 kW=7.799747886941167 kvar=1.573922770898516 Phases=1 yearly=com_kw_29075_pu

New Load.load_p13ulv18799_2 conn=wye bus1=p13ulv18799.2 kV=0.12 Vminpu=0.8 Vmaxpu=1.2 model=1 kW=7.799747886941167 kvar=1.573922770898516 Phases=1 yearly=com_kw_29075_pu

New Load.load_p13ulv18800_1 conn=wye bus1=p13ulv18800.1 kV=0.12 Vminpu=0.8 Vmaxpu=1.2 model=1 kW=6.887268818021247 kvar=2.0124643291307467 Phases=1 yearly=res_kw_3094_pu

New Load.load_p13ulv18800_2 conn=wye bus1=p13ulv18800.2 kV=0.12 Vminpu=0.8 Vmaxpu=1.2 model=1 kW=6.887268818021247 kvar=2.0124643291307467 Phases=1 yearly=res_kw_3094_pu

...